
Note: No compatibility mode selected!


Circuit: * 5v single-supply transistor wien bridge oscillator

Doing analysis at TEMP = 27.000000 and TNOM = 27.000000

Using SPARSE 1.3 as Direct Linear Solver
Operating point simulation skipped by 'uic',
  now using transient initial conditions.
 Reference value :  4.32377e-03
 Reference value :  8.09178e-03
 Reference value :  1.19351e-02
 Reference value :  1.57292e-02
 Reference value :  1.89487e-02
No. of Data Rows : 91332
ngspice-45.2 done
