
Note: No compatibility mode selected!


Circuit: * 5 v cmos two-stage differential opamp

Doing analysis at TEMP = 27.000000 and TNOM = 27.000000

Using SPARSE 1.3 as Direct Linear Solver

No. of Data Rows : 181
ngspice-45.2 done
