
Note: No compatibility mode selected!


Circuit: * 5v single-supply transistor-level wien bridge oscillator

Doing analysis at TEMP = 27.000000 and TNOM = 27.000000

Using SPARSE 1.3 as Direct Linear Solver
Operating point simulation skipped by 'uic',
  now using transient initial conditions.

No. of Data Rows : 20141
ngspice-45.2 done
