
Note: No compatibility mode selected!


Circuit: * single-supply inverting op-amp integrator

Doing analysis at TEMP = 27.000000 and TNOM = 27.000000

Using SPARSE 1.3 as Direct Linear Solver
Operating point simulation skipped by 'uic',
  now using transient initial conditions.
 Reference value :  1.19098e-01
No. of Data Rows : 201255
ngspice-45.2 done
