
Note: No compatibility mode selected!


Circuit: * 5v single-supply transistor wien bridge oscillator

Doing analysis at TEMP = 27.000000 and TNOM = 27.000000

Using SPARSE 1.3 as Direct Linear Solver
Operating point simulation skipped by 'uic',
  now using transient initial conditions.
 Reference value :  3.04302e-03
 Reference value :  6.20128e-03
 Reference value :  9.35494e-03
 Reference value :  1.25233e-02
 Reference value :  1.56765e-02
 Reference value :  1.88360e-02
No. of Data Rows : 130807
ngspice-45.2 done
